
 OpenBabel10302321593D

201202  0  0  1  0  0  0  0  0999 V2000
  -19.3968   -4.9668    0.0000 N   0  0  0  0  0  0  0  0  0  0  0  0
  -17.9381   -4.9668    0.0000 C   0  0  2  0  0  0  0  0  0  0  0  0
  -17.5026   -4.9668    1.4743 C   0  0  0  0  0  0  0  0  0  0  0  0
  -18.2978   -4.9668    2.4118 O   0  0  0  0  0  0  0  0  0  0  0  0
  -17.3992   -3.7383   -0.7458 C   0  0  0  0  0  0  0  0  0  0  0  0
  -15.9168   -3.8683   -1.0899 C   0  0  0  0  0  0  0  0  0  0  0  0
  -15.3667   -2.4131   -2.0382 S   0  0  0  0  0  0  0  0  0  0  0  0
  -13.6676   -2.9324   -2.3760 C   0  0  0  0  0  0  0  0  0  0  0  0
  -17.5965   -5.8926   -0.4781 H   0  0  0  0  0  0  0  0  0  0  0  0
  -17.5672   -2.8375   -0.1398 H   0  0  0  0  0  0  0  0  0  0  0  0
  -17.9714   -3.6048   -1.6735 H   0  0  0  0  0  0  0  0  0  0  0  0
  -15.7477   -4.7675   -1.6914 H   0  0  0  0  0  0  0  0  0  0  0  0
  -15.3081   -3.9301   -0.1844 H   0  0  0  0  0  0  0  0  0  0  0  0
  -13.1246   -3.0916   -1.4408 H   0  0  0  0  0  0  0  0  0  0  0  0
  -13.1583   -2.1504   -2.9454 H   0  0  0  0  0  0  0  0  0  0  0  0
  -13.6617   -3.8520   -2.9668 H   0  0  0  0  0  0  0  0  0  0  0  0
  -19.8658   -4.5229    0.7846 H   0  0  0  0  0  0  0  0  0  0  0  0
  -19.9048   -4.8901   -0.8765 H   0  0  0  0  0  0  0  0  0  0  0  0
  -16.1999   -4.9668    1.7881 N   0  0  0  0  0  0  0  0  0  0  0  0
  -15.7867   -4.9666    3.1870 C   0  0  2  0  0  0  0  0  0  0  0  0
  -14.2494   -4.9667    3.1870 C   0  0  0  0  0  0  0  0  0  0  0  0
  -13.5755   -4.9669    2.1589 O   0  0  0  0  0  0  0  0  0  0  0  0
  -16.3493   -6.1949    3.9154 C   0  0  0  0  0  0  0  0  0  0  0  0
  -16.2594   -6.0648    5.4345 C   0  0  0  0  0  0  0  0  0  0  0  0
  -17.0130   -7.5198    6.2309 S   0  0  0  0  0  0  0  0  0  0  0  0
  -16.8556   -7.0002    7.9560 C   0  0  0  0  0  0  0  0  0  0  0  0
  -16.1484   -4.0408    3.6500 H   0  0  0  0  0  0  0  0  0  0  0  0
  -15.8158   -7.0959    3.5827 H   0  0  0  0  0  0  0  0  0  0  0  0
  -17.4011   -6.3285    3.6295 H   0  0  0  0  0  0  0  0  0  0  0  0
  -16.7883   -5.1655    5.7669 H   0  0  0  0  0  0  0  0  0  0  0  0
  -15.2185   -6.0029    5.7617 H   0  0  0  0  0  0  0  0  0  0  0  0
  -15.8049   -6.8410    8.2119 H   0  0  0  0  0  0  0  0  0  0  0  0
  -17.2575   -7.7820    8.6060 H   0  0  0  0  0  0  0  0  0  0  0  0
  -17.4205   -6.0805    8.1289 H   0  0  0  0  0  0  0  0  0  0  0  0
  -15.5803   -5.4109    1.1161 H   0  0  0  0  0  0  0  0  0  0  0  0
  -13.5794   -4.9665    4.3475 N   0  0  0  0  0  0  0  0  0  0  0  0
  -12.1182   -4.9668    4.3475 C   0  0  2  0  0  0  0  0  0  0  0  0
  -11.6648   -4.9665    5.8181 C   0  0  0  0  0  0  0  0  0  0  0  0
  -12.4513   -4.9661    6.7642 O   0  0  0  0  0  0  0  0  0  0  0  0
  -11.7745   -5.9036    3.8912 H   0  0  0  0  0  0  0  0  0  0  0  0
  -11.5285   -3.7610    3.6038 C   0  0  0  0  0  0  0  0  0  0  0  0
  -11.9697   -3.6617    2.6078 H   0  0  0  0  0  0  0  0  0  0  0  0
  -11.7126   -2.8294    4.1520 H   0  0  0  0  0  0  0  0  0  0  0  0
  -10.1128   -3.9039    3.4367 O   0  0  0  0  0  0  0  0  0  0  0  0
   -9.8499   -3.2462    2.7662 H   0  0  0  0  0  0  0  0  0  0  0  0
  -14.0361   -4.9241    5.2554 H   0  0  0  0  0  0  0  0  0  0  0  0
  -10.3585   -4.9667    6.1165 N   0  0  0  0  0  0  0  0  0  0  0  0
   -9.9279   -4.9662    7.5134 C   0  0  2  0  0  0  0  0  0  0  0  0
   -8.3901   -4.9665    7.5001 C   0  0  0  0  0  0  0  0  0  0  0  0
   -7.7292   -4.9671    6.4620 O   0  0  0  0  0  0  0  0  0  0  0  0
  -10.4734   -6.1910    8.2660 C   0  0  0  0  0  0  0  0  0  0  0  0
  -10.5094   -6.0023    9.7650 C   0  0  0  0  0  0  0  0  0  0  0  0
   -9.5520   -6.6069   10.5902 C   0  0  0  0  0  0  0  0  0  0  0  0
   -9.5822   -6.4047   11.9707 C   0  0  0  0  0  0  0  0  0  0  0  0
  -10.5732   -5.6058   12.5386 C   0  0  0  0  0  0  0  0  0  0  0  0
  -11.5354   -5.0077   11.7272 C   0  0  0  0  0  0  0  0  0  0  0  0
  -11.5036   -5.2028   10.3463 C   0  0  0  0  0  0  0  0  0  0  0  0
   -9.6756   -5.2467    5.4174 H   0  0  0  0  0  0  0  0  0  0  0  0
  -10.2733   -4.0272    7.9632 H   0  0  0  0  0  0  0  0  0  0  0  0
   -9.8845   -7.0841    8.0176 H   0  0  0  0  0  0  0  0  0  0  0  0
  -11.4963   -6.4200    7.9384 H   0  0  0  0  0  0  0  0  0  0  0  0
   -8.7746   -7.2380   10.1640 H   0  0  0  0  0  0  0  0  0  0  0  0
   -8.8365   -6.8766   12.6056 H   0  0  0  0  0  0  0  0  0  0  0  0
  -10.6015   -5.4558   13.6148 H   0  0  0  0  0  0  0  0  0  0  0  0
  -12.3156   -4.3933   12.1696 H   0  0  0  0  0  0  0  0  0  0  0  0
  -12.2650   -4.7335    9.7236 H   0  0  0  0  0  0  0  0  0  0  0  0
   -7.7101   -4.9662    8.6548 N   0  0  0  0  0  0  0  0  0  0  0  0
   -6.2495   -4.9667    8.6422 C   0  0  2  0  0  0  0  0  0  0  0  0
   -5.7950   -4.9662   10.1150 C   0  0  0  0  0  0  0  0  0  0  0  0
   -6.5822   -4.9654   11.0605 O   0  0  0  0  0  0  0  0  0  0  0  0
   -5.6939   -3.7868    7.8113 C   0  0  0  0  0  0  0  0  0  0  0  0
   -5.9746   -2.4213    8.4464 C   0  0  0  0  0  0  0  0  0  0  0  0
   -4.1996   -3.9307    7.5155 C   0  0  0  0  0  0  0  0  0  0  0  0
   -5.9317   -5.9155    8.1911 H   0  0  0  0  0  0  0  0  0  0  0  0
   -8.1660   -4.6000    9.4860 H   0  0  0  0  0  0  0  0  0  0  0  0
   -6.2050   -3.7961    6.8384 H   0  0  0  0  0  0  0  0  0  0  0  0
   -7.0446   -2.2801    8.6280 H   0  0  0  0  0  0  0  0  0  0  0  0
   -5.6443   -1.6150    7.7824 H   0  0  0  0  0  0  0  0  0  0  0  0
   -5.4471   -2.3016    9.3987 H   0  0  0  0  0  0  0  0  0  0  0  0
   -3.8809   -3.1768    6.7873 H   0  0  0  0  0  0  0  0  0  0  0  0
   -3.9764   -4.9151    7.0918 H   0  0  0  0  0  0  0  0  0  0  0  0
   -3.5893   -3.7935    8.4135 H   0  0  0  0  0  0  0  0  0  0  0  0
   -4.4886   -4.9665   10.4131 N   0  0  0  0  0  0  0  0  0  0  0  0
   -4.0580   -4.9657   11.8088 C   0  0  2  0  0  0  0  0  0  0  0  0
   -2.5131   -4.9664   11.7868 C   0  0  0  0  0  0  0  0  0  0  0  0
   -1.8642   -4.9674   10.7403 O   0  0  0  0  0  0  0  0  0  0  0  0
   -4.6409   -6.1619   12.5745 C   0  0  0  0  0  0  0  0  0  0  0  0
   -5.4859   -6.6065   12.0328 H   0  0  0  0  0  0  0  0  0  0  0  0
   -3.8970   -6.9642   12.6599 H   0  0  0  0  0  0  0  0  0  0  0  0
   -5.1417   -5.7489   13.9583 C   0  0  0  0  0  0  0  0  0  0  0  0
   -4.3940   -5.1720   14.5128 H   0  0  0  0  0  0  0  0  0  0  0  0
   -6.0292   -5.1126   13.8648 H   0  0  0  0  0  0  0  0  0  0  0  0
   -5.4676   -6.9627   14.7775 C   0  0  0  0  0  0  0  0  0  0  0  0
   -4.6710   -7.8233   15.1149 O   0  5  0  0  0  0  0  0  0  0  0  0
   -6.7611   -7.0336   15.1307 O   0  0  0  0  0  0  0  0  0  0  0  0
   -6.8384   -7.8677   15.6388 H   0  0  0  0  0  0  0  0  0  0  0  0
   -3.7569   -4.9919    9.7063 H   0  0  0  0  0  0  0  0  0  0  0  0
   -4.3846   -4.0132   12.2441 H   0  0  0  0  0  0  0  0  0  0  0  0
   -1.8266   -4.9659   12.9376 N   0  0  0  0  0  0  0  0  0  0  0  0
   -0.3674   -4.9667   12.9169 C   0  0  2  0  0  0  0  0  0  0  0  0
    0.0861   -4.9659   14.3862 C   0  0  0  0  0  0  0  0  0  0  0  0
   -0.6982   -4.9647   15.3335 O   0  0  0  0  0  0  0  0  0  0  0  0
    0.1568   -3.7451   12.1494 C   0  0  0  0  0  0  0  0  0  0  0  0
    1.6767   -3.7371   11.9624 C   0  0  0  0  0  0  0  0  0  0  0  0
    2.1154   -2.5995   11.0355 C   0  0  0  0  0  0  0  0  0  0  0  0
    3.6379   -2.5336   10.9223 C   0  0  0  0  0  0  0  0  0  0  0  0
    4.0320   -1.4683   10.0098 N   0  0  0  0  0  0  0  0  0  0  0  0
   -0.0326   -5.8935   12.4360 H   0  0  0  0  0  0  0  0  0  0  0  0
   -0.1458   -2.8249   12.6665 H   0  0  0  0  0  0  0  0  0  0  0  0
   -0.3206   -3.7135   11.1613 H   0  0  0  0  0  0  0  0  0  0  0  0
    2.0057   -4.6960   11.5445 H   0  0  0  0  0  0  0  0  0  0  0  0
    2.1697   -3.6143   12.9329 H   0  0  0  0  0  0  0  0  0  0  0  0
    1.7309   -1.6457   11.4185 H   0  0  0  0  0  0  0  0  0  0  0  0
    1.6742   -2.7500   10.0420 H   0  0  0  0  0  0  0  0  0  0  0  0
    4.0310   -3.4861   10.5516 H   0  0  0  0  0  0  0  0  0  0  0  0
    4.0816   -2.3501   11.9071 H   0  0  0  0  0  0  0  0  0  0  0  0
    5.0481   -1.3913    9.9944 H   0  0  0  0  0  0  0  0  0  0  0  0
    3.6820   -0.5734   10.3497 H   0  0  0  0  0  0  0  0  0  0  0  0
   -2.2801   -4.5622   13.7524 H   0  0  0  0  0  0  0  0  0  0  0  0
    1.3925   -4.9664   14.6842 N   0  0  0  0  0  0  0  0  0  0  0  0
    1.8191   -4.9653   16.0666 C   0  0  0  0  0  0  0  0  0  0  0  0
    3.3427   -4.9662   16.1422 C   0  0  0  0  0  0  0  0  0  0  0  0
    4.0719   -4.9676   15.1534 O   0  0  0  0  0  0  0  0  0  0  0  0
    1.4244   -4.0686   16.5562 H   0  0  0  0  0  0  0  0  0  0  0  0
    1.4224   -5.8576   16.5591 H   0  0  0  0  0  0  0  0  0  0  0  0
    2.1129   -4.9650   13.9676 H   0  0  0  0  0  0  0  0  0  0  0  0
    3.9544   -4.9654   17.3344 N   0  0  0  0  0  0  0  0  0  0  0  0
    5.4138   -4.9665   17.4068 C   0  0  2  0  0  0  0  0  0  0  0  0
    5.7937   -4.9652   18.8980 C   0  0  0  0  0  0  0  0  0  0  0  0
    4.9613   -4.9637   19.8041 O   0  0  0  0  0  0  0  0  0  0  0  0
    5.7791   -5.9038   16.9688 H   0  0  0  0  0  0  0  0  0  0  0  0
    6.0403   -3.7616   16.6922 C   0  0  0  0  0  0  0  0  0  0  0  0
    5.6490   -3.6628   15.6756 H   0  0  0  0  0  0  0  0  0  0  0  0
    5.8297   -2.8294   17.2299 H   0  0  0  0  0  0  0  0  0  0  0  0
    7.4624   -3.9054   16.5957 O   0  0  0  0  0  0  0  0  0  0  0  0
    7.7586   -3.2484   15.9385 H   0  0  0  0  0  0  0  0  0  0  0  0
    3.4532   -4.9220   18.2185 H   0  0  0  0  0  0  0  0  0  0  0  0
    7.0837   -4.9658   19.2608 N   0  0  0  0  0  0  0  0  0  0  0  0
    7.4450   -4.9644   20.6791 C   0  0  2  0  0  0  0  0  0  0  0  0
    8.9822   -4.9656   20.7329 C   0  0  0  0  0  0  0  0  0  0  0  0
    9.6875   -4.9674   19.7240 O   0  0  0  0  0  0  0  0  0  0  0  0
    6.8712   -6.1891   21.4078 C   0  0  0  0  0  0  0  0  0  0  0  0
    7.4643   -7.0816   21.1674 H   0  0  0  0  0  0  0  0  0  0  0  0
    5.8566   -6.4013   21.0460 H   0  0  0  0  0  0  0  0  0  0  0  0
    6.7995   -6.0247   22.8975 C   0  0  0  0  0  0  0  0  0  0  0  0
    7.6472   -6.5845   23.8340 C   0  0  0  0  0  0  0  0  0  0  0  0
    7.2256   -6.2027   25.0797 N   0  0  0  0  0  0  0  0  0  0  0  0
    7.6536   -6.4795   25.9523 H   0  0  0  0  0  0  0  0  0  0  0  0
    6.1133   -5.4007   24.9800 C   0  0  0  0  0  0  0  0  0  0  0  0
    5.8183   -5.2746   23.6226 C   0  0  0  0  0  0  0  0  0  0  0  0
    4.6994   -4.5039   23.2457 C   0  0  0  0  0  0  0  0  0  0  0  0
    4.4339   -4.3869   22.1973 H   0  0  0  0  0  0  0  0  0  0  0  0
    3.9197   -3.8926   24.2341 C   0  0  0  0  0  0  0  0  0  0  0  0
    3.0532   -3.3042   23.9420 H   0  0  0  0  0  0  0  0  0  0  0  0
    4.2406   -4.0364   25.5815 C   0  0  0  0  0  0  0  0  0  0  0  0
    3.6191   -3.5568   26.3343 H   0  0  0  0  0  0  0  0  0  0  0  0
    5.3460   -4.7933   25.9815 C   0  0  0  0  0  0  0  0  0  0  0  0
    5.5885   -4.9078   27.0328 H   0  0  0  0  0  0  0  0  0  0  0  0
    8.5076   -7.2314   23.7199 H   0  0  0  0  0  0  0  0  0  0  0  0
    7.8045   -5.2406   18.5986 H   0  0  0  0  0  0  0  0  0  0  0  0
    7.0786   -4.0264   21.1135 H   0  0  0  0  0  0  0  0  0  0  0  0
    9.6112   -4.9647   21.9161 N   0  0  0  0  0  0  0  0  0  0  0  0
   11.0736   -4.9661   21.9673 C   0  0  2  0  0  0  0  0  0  0  0  0
   11.4203   -4.9645   23.4616 C   0  0  0  0  0  0  0  0  0  0  0  0
   10.5697   -4.9625   24.3497 O   0  0  0  0  0  0  0  0  0  0  0  0
   11.4189   -5.8942   21.5008 H   0  0  0  0  0  0  0  0  0  0  0  0
    9.1179   -4.4944   22.6692 H   0  0  0  0  0  0  0  0  0  0  0  0
   11.6208   -3.7331   21.2309 C   0  0  0  0  0  0  0  0  0  0  0  0
   11.1092   -3.6693   20.2599 H   0  0  0  0  0  0  0  0  0  0  0  0
   11.3270   -2.8220   21.7698 H   0  0  0  0  0  0  0  0  0  0  0  0
   13.1334   -3.6729   20.9322 C   0  0  0  0  0  0  0  0  0  0  0  0
   13.2581   -2.8895   20.1714 H   0  0  0  0  0  0  0  0  0  0  0  0
   13.6835   -4.9650   20.3319 C   0  0  0  0  0  0  0  0  0  0  0  0
   14.7073   -4.8146   19.9723 H   0  0  0  0  0  0  0  0  0  0  0  0
   13.0761   -5.2897   19.4807 H   0  0  0  0  0  0  0  0  0  0  0  0
   13.7106   -5.7765   21.0655 H   0  0  0  0  0  0  0  0  0  0  0  0
   13.9685   -3.2304   22.1325 C   0  0  0  0  0  0  0  0  0  0  0  0
   14.9947   -3.0090   21.8185 H   0  0  0  0  0  0  0  0  0  0  0  0
   14.0278   -3.9994   22.9045 H   0  0  0  0  0  0  0  0  0  0  0  0
   13.5583   -2.3203   22.5823 H   0  0  0  0  0  0  0  0  0  0  0  0
   12.7022   -4.9652   23.8519 N   0  0  0  0  0  0  0  0  0  0  0  0
   13.0329   -4.9635   25.2773 C   0  0  2  0  0  0  0  0  0  0  0  0
   14.5660   -4.9650   25.3310 C   0  0  0  0  0  0  0  0  0  0  0  0
   15.2744   -4.9672   24.3259 O   0  0  0  0  0  0  0  0  0  0  0  0
   12.6413   -4.0353   25.7054 H   0  0  0  0  0  0  0  0  0  0  0  0
   13.3467   -5.4357   23.2234 H   0  0  0  0  0  0  0  0  0  0  0  0
   12.4152   -6.1963   25.9560 C   0  0  0  0  0  0  0  0  0  0  0  0
   11.3641   -6.2603   25.6401 H   0  0  0  0  0  0  0  0  0  0  0  0
   12.8878   -7.1075   25.5645 H   0  0  0  0  0  0  0  0  0  0  0  0
   12.4122   -6.2561   27.4977 C   0  0  0  0  0  0  0  0  0  0  0  0
   11.6895   -7.0395   27.7663 H   0  0  0  0  0  0  0  0  0  0  0  0
   11.9285   -4.9639   28.1525 C   0  0  0  0  0  0  0  0  0  0  0  0
   11.7720   -5.1141   29.2263 H   0  0  0  0  0  0  0  0  0  0  0  0
   10.9766   -4.6394   27.7195 H   0  0  0  0  0  0  0  0  0  0  0  0
   12.6537   -4.1525   28.0382 H   0  0  0  0  0  0  0  0  0  0  0  0
   13.7504   -6.6985   28.0872 C   0  0  0  0  0  0  0  0  0  0  0  0
   13.6391   -6.9196   29.1547 H   0  0  0  0  0  0  0  0  0  0  0  0
   14.5195   -5.9295   27.9971 H   0  0  0  0  0  0  0  0  0  0  0  0
   14.1133   -7.6086   27.5986 H   0  0  0  0  0  0  0  0  0  0  0  0
   15.1332   -4.9638   26.5572 O   0  0  0  0  0  0  0  0  0  0  0  0
   14.5202   -4.9619   27.4268 H   0  0  0  0  0  0  0  0  0  0  0  0
  1  2  1  0  0  0  0
  1 17  1  0  0  0  0
  2  3  1  0  0  0  0
  2  5  1  0  0  0  0
  2  9  1  6  0  0  0
  3  4  2  0  0  0  0
  3 19  1  0  0  0  0
  5  6  1  0  0  0  0
  5 10  1  0  0  0  0
  6  7  1  0  0  0  0
  6 13  1  0  0  0  0
  7  8  1  0  0  0  0
  8 14  1  0  0  0  0
 11  5  1  0  0  0  0
 12  6  1  0  0  0  0
 15  8  1  0  0  0  0
 16  8  1  0  0  0  0
 18  1  1  0  0  0  0
 19 20  1  0  0  0  0
 19 35  1  0  0  0  0
 20 21  1  0  0  0  0
 20 23  1  0  0  0  0
 20 27  1  1  0  0  0
 21 22  2  0  0  0  0
 21 36  1  0  0  0  0
 23 24  1  0  0  0  0
 24 25  1  0  0  0  0
 24 31  1  0  0  0  0
 24 30  1  0  0  0  0
 25 26  1  0  0  0  0
 26 34  1  0  0  0  0
 26 32  1  0  0  0  0
 26 33  1  0  0  0  0
 28 23  1  0  0  0  0
 29 23  1  0  0  0  0
 36 37  1  0  0  0  0
 36 46  1  0  0  0  0
 37 38  1  0  0  0  0
 37 40  1  6  0  0  0
 37 41  1  0  0  0  0
 38 39  2  0  0  0  0
 38 47  1  0  0  0  0
 41 42  1  0  0  0  0
 41 43  1  0  0  0  0
 41 44  1  0  0  0  0
 44 45  1  0  0  0  0
 47 48  1  0  0  0  0
 47 58  1  0  0  0  0
 48 49  1  0  0  0  0
 48 51  1  0  0  0  0
 48 59  1  1  0  0  0
 49 50  2  0  0  0  0
 49 67  1  0  0  0  0
 51 52  1  0  0  0  0
 52 53  2  0  0  0  0
 52 57  1  0  0  0  0
 53 54  1  0  0  0  0
 54 55  2  0  0  0  0
 54 63  1  0  0  0  0
 55 56  1  0  0  0  0
 55 64  1  0  0  0  0
 56 57  2  0  0  0  0
 56 65  1  0  0  0  0
 60 51  1  0  0  0  0
 61 51  1  0  0  0  0
 62 53  1  0  0  0  0
 66 57  1  0  0  0  0
 67 68  1  0  0  0  0
 67 75  1  0  0  0  0
 68 69  1  0  0  0  0
 68 71  1  0  0  0  0
 68 74  1  6  0  0  0
 69 70  2  0  0  0  0
 69 83  1  0  0  0  0
 71 72  1  0  0  0  0
 71 73  1  0  0  0  0
 71 76  1  0  0  0  0
 72 77  1  0  0  0  0
 72 79  1  0  0  0  0
 73 82  1  0  0  0  0
 78 72  1  0  0  0  0
 80 73  1  0  0  0  0
 81 73  1  0  0  0  0
 83 84  1  0  0  0  0
 83 97  1  0  0  0  0
 84 85  1  0  0  0  0
 84 87  1  0  0  0  0
 84 98  1  1  0  0  0
 85 86  2  0  0  0  0
 85 99  1  0  0  0  0
 87 90  1  0  0  0  0
 87 89  1  0  0  0  0
 88 87  1  0  0  0  0
 90 93  1  0  0  0  0
 90 91  1  0  0  0  0
 92 90  1  0  0  0  0
 93 94  1  0  0  0  0
 93 95  2  0  0  0  0
 99100  1  0  0  0  0
 99119  1  0  0  0  0
100101  1  0  0  0  0
100103  1  0  0  0  0
100108  1  6  0  0  0
101102  2  0  0  0  0
101120  1  0  0  0  0
103104  1  0  0  0  0
103109  1  0  0  0  0
104105  1  0  0  0  0
104112  1  0  0  0  0
105106  1  0  0  0  0
105113  1  0  0  0  0
106107  1  0  0  0  0
106116  1  0  0  0  0
107117  1  0  0  0  0
107118  1  0  0  0  0
110103  1  0  0  0  0
111104  1  0  0  0  0
114105  1  0  0  0  0
115106  1  0  0  0  0
120121  1  0  0  0  0
120126  1  0  0  0  0
121122  1  0  0  0  0
121124  1  0  0  0  0
121125  1  0  0  0  0
122123  2  0  0  0  0
122127  1  0  0  0  0
127128  1  0  0  0  0
127137  1  0  0  0  0
128129  1  0  0  0  0
128131  1  6  0  0  0
128132  1  0  0  0  0
129130  2  0  0  0  0
129138  1  0  0  0  0
132133  1  0  0  0  0
132134  1  0  0  0  0
132135  1  0  0  0  0
135136  1  0  0  0  0
138139  1  0  0  0  0
138160  1  0  0  0  0
139140  1  0  0  0  0
139142  1  0  0  0  0
139161  1  1  0  0  0
140141  2  0  0  0  0
140162  1  0  0  0  0
142145  1  0  0  0  0
143142  1  0  0  0  0
144142  1  0  0  0  0
145146  2  0  0  0  0
145150  1  0  0  0  0
146147  1  0  0  0  0
147148  1  0  0  0  0
147149  1  0  0  0  0
149150  1  0  0  0  0
149157  2  0  0  0  0
150151  2  0  0  0  0
151153  1  0  0  0  0
152151  1  0  0  0  0
153155  2  0  0  0  0
154153  1  0  0  0  0
155157  1  0  0  0  0
155156  1  0  0  0  0
157158  1  0  0  0  0
159146  1  0  0  0  0
162163  1  0  0  0  0
162167  1  0  0  0  0
163164  1  0  0  0  0
163166  1  6  0  0  0
163168  1  0  0  0  0
164165  2  0  0  0  0
164181  1  0  0  0  0
168171  1  0  0  0  0
168170  1  0  0  0  0
169168  1  0  0  0  0
171172  1  0  0  0  0
171173  1  0  0  0  0
171177  1  0  0  0  0
173176  1  0  0  0  0
174173  1  0  0  0  0
175173  1  0  0  0  0
177180  1  0  0  0  0
177179  1  0  0  0  0
178177  1  0  0  0  0
181182  1  0  0  0  0
181186  1  0  0  0  0
182183  1  0  0  0  0
182185  1  1  0  0  0
182187  1  0  0  0  0
183184  2  0  0  0  0
187190  1  0  0  0  0
188187  1  0  0  0  0
189187  1  0  0  0  0
190191  1  0  0  0  0
190192  1  0  0  0  0
190196  1  0  0  0  0
192193  1  0  0  0  0
194192  1  0  0  0  0
195192  1  0  0  0  0
196197  1  0  0  0  0
198196  1  0  0  0  0
199196  1  0  0  0  0
200183  1  0  0  0  0
201200  1  0  0  0  0
M  CHG  2  94  -1  96  -7
M  END
